

-----------------------------------------------------------------------
--- AUTEUR mcourtoi M.COURTOIS   DATE  le 03/06/2005 a 16:21:22

------------------------------------------------------------------------------
RESTITUTION HORS AREX
   NB_JOURS_TRAV  : 0.5
   INTERET_UTILISATEUR : NON
   FONCTIONNALITE    Modification du message d'entête
      Le début d'une exécution commence systématiquement par l'affichage de la
      version utilisée.
      Or lors des exécutions lancées en interactif sur l'AlphaServer ou bien
      lancées sur des versions locales, on avait le message "RESULTATS PRODUITS
      PAR SURCHARGE NON OFFICIELLE, NE DOIVENT PAS ETRE PUBLIES EN FAISANT
      REFERENCE A CODE_ASTER..."
      On se contente maintenant d'afficher :
       - VERSION D'EXPLOITATION               pour 7.4.0
       - VERSION DE DEVELOPPEMENT par exemple pour 7.4.5 ou 8.0.12
       - VERSION DE DEVELOPPEMENT FIGEE       pour 8.1.0

      Ceci n'entrera en vigueur qu'à partir de la 7.5 et 8.1.
      Pour les versions précédentes, il apparaitra toujours "SURCHARGE NON
      OFFICIELLE" quand l'exécution n'est pas lancée par les scripts de l'AGLA.

   RESU_FAUX_VERSION_EXPLOITATION    :   NON
   RESU_FAUX_VERSION_DEVELOPPEMENT   :   NON
   RESTITUTION_VERSION_EXPLOITATION  :   OUI
   RESTITUTION_VERSION_DEVELOPPEMENT :   OUI
   IMPACT_DOCUMENTAIRE : NON
   VALIDATION
   DETAILS
      asterm, prente, irmdes (qui utilisait isenvo) + ajout de surchg 'vide'
      supprimer isenvo.c

------------------------------------------------------------------------------
CORRECTION AL 2005-201
   NB_JOURS_TRAV  : 0.5
   INTERET_UTILISATEUR : NON
   TITRE  IMPR_FONCTION / FORMAT='XMGRACE'
   FONCTIONNALITE
      Oubli de restitution du cas-test zzzz140a lors d'un asrest précédent
   RESU_FAUX_VERSION_EXPLOITATION    :   NON
   RESU_FAUX_VERSION_DEVELOPPEMENT   :   NON
   RESTITUTION_VERSION_EXPLOITATION  :   OUI
   RESTITUTION_VERSION_DEVELOPPEMENT :   NON
   IMPACT_DOCUMENTAIRE : NON
   VALIDATION


========================================================================
=== Recapitulation des operations demandees pour toutes les restitutions
========================================================================


    TYPE Action    unite                      user      Auteur         nblg  ajout suppr.

       C MODIF utilitai/asterm              mcourtoi M.COURTOIS         552      1     26
 CASTEST MODIF zzzz140a                     mcourtoi M.COURTOIS         183      4      4
 FORTRAN AJOUT supervis/surchg              mcourtoi M.COURTOIS          23     23      0
 FORTRAN MODIF prepost/irmdes               mcourtoi M.COURTOIS         162      3     19
 FORTRAN MODIF supervis/prente              mcourtoi M.COURTOIS          88     17     41


        nb unites  nb lignes  ajouts  suppr.  difference
 AJOUT :    1          23        23               +23
 MODIF :    4         985        25      90       -65
 SUPPR :    0           0                 0        +0
 DEPLA :    0           0 
         ----      ------     ------  ------   ------
 TOTAL :    5        1008        48      90       -42 
