# MODIF  DATE 29/11/2011   AUTEUR DURAND C.DURAND 
# TITRE PLAQUE CARREE EN TRACTION BIAXIALE
#            CONFIGURATION MANAGEMENT OF EDF VERSION
# ======================================================================
# COPYRIGHT (C) 1991 - 2011  EDF R&D                  WWW.CODE-ASTER.ORG
# THIS PROGRAM IS FREE SOFTWARE; YOU CAN REDISTRIBUTE IT AND/OR MODIFY
# IT UNDER THE TERMS OF THE GNU GENERAL PUBLIC LICENSE AS PUBLISHED BY
# THE FREE SOFTWARE FOUNDATION; EITHER VERSION 2 OF THE LICENSE, OR
# (AT YOUR OPTION) ANY LATER VERSION.
#
# THIS PROGRAM IS DISTRIBUTED IN THE HOPE THAT IT WILL BE USEFUL, BUT
# WITHOUT ANY WARRANTY; WITHOUT EVEN THE IMPLIED WARRANTY OF
# MERCHANTABILITY OR FITNESS FOR A PARTICULAR PURPOSE. SEE THE GNU
# GENERAL PUBLIC LICENSE FOR MORE DETAILS.
#
# YOU SHOULD HAVE RECEIVED A COPY OF THE GNU GENERAL PUBLIC LICENSE
# ALONG WITH THIS PROGRAM; IF NOT, WRITE TO EDF R&D CODE_ASTER,
#    1 AVENUE DU GENERAL DE GAULLE, 92141 CLAMART CEDEX, FRANCE.
# ======================================================================
#
# UTILISATION DE LA LOI VISCOPLASTIQUE DE NORTON
# ELEMENTS TRIA3 + SEG2 POUR LE CHARGEMENT
#.....................................................................

DEBUT(   CODE=_F(  NOM = 'SSNP02A',NIV_PUB_WEB='INTERNET'))

MAYA=LIRE_MAILLAGE( )

MODEL=AFFE_MODELE(    MAILLAGE=MAYA,
                                VERIF='MAILLE',
                                 AFFE=_F(  TOUT = 'OUI',
                                        PHENOMENE = 'MECANIQUE',
                                        MODELISATION = 'D_PLAN')
                         )

ACIER=DEFI_MATERIAU(        ELAS=_F(  E = 178600.,
                                      NU = 0.3),
                           LEMAITRE=_F(  N = 9.7,
                                      UN_SUR_K = .00077519,
                                      UN_SUR_M = 0.)
                       )

MATER=AFFE_MATERIAU(   MAILLAGE=MAYA,
                                 AFFE=_F(  TOUT = 'OUI',
                                        MATER = ACIER)
                         )

TRAC_FO=DEFI_FONCTION(       NOM_PARA='INST',
                             PROL_DROITE='EXCLU',
                            PROL_GAUCHE='EXCLU',
                                   VALE=( 0.,       0.,
                                         30.,     300.,
                                         3630.,   300.,
                                         3660.,   300.,
                                         7260.,   300.,
                                         7320.,  -300.,
                                         7350.,  -300.,
                                         10950., -300.,
                                         10980., -300.,
                                         11010.,    0.,  )
                        )

CISA_FO=DEFI_FONCTION(       NOM_PARA='INST',
                             PROL_DROITE='EXCLU',
                            PROL_GAUCHE='EXCLU',
                                   VALE=( 0.,       0.,
                                         30.,       0.,
                                         3630.,     0.,
                                         3660.,   300.,
                                         7260.,   300.,
                                         7320.,   300.,
                                         7350.,     0.,
                                         10950.,    0.,
                                         10980., -300.,
                                         11010., -300.,  )
                        )

TRAC=AFFE_CHAR_MECA(      MODELE=MODEL,
                            FORCE_CONTOUR=_F(  GROUP_MA = 'DROITE',
                                             FX = 1.)
                        )

CISA=AFFE_CHAR_MECA(      MODELE=MODEL,
                            FORCE_CONTOUR=_F(  GROUP_MA = 'HAUT',
                                             FY = 1.)
                        )

CONDLIM=AFFE_CHAR_MECA(     MODELE=MODEL,DDL_IMPO=(
                              _F(  NOEUD = 'NO1',  DX = 0.,
                                                      DY = 0.),
                                       _F(  NOEUD = 'NO2',  DY = 0.),
                                       _F(  NOEUD = 'NO4',  DX = 0.))
                          )

CAT=DEFI_LIST_REEL(    DEBUT=0.0,INTERVALLE=(
                          _F(  JUSQU_A = 30.,     NOMBRE = 30),
                          _F(  JUSQU_A = 3630.,   NOMBRE = 10),
                          _F(  JUSQU_A = 3660.,   NOMBRE = 10),
                          _F(  JUSQU_A = 7260.,   NOMBRE = 10),
                          _F(  JUSQU_A = 7320.,   NOMBRE = 100),
                          _F(  JUSQU_A = 7350.,   NOMBRE = 20),
                          _F(  JUSQU_A = 10950.,  NOMBRE = 20),
                          _F(  JUSQU_A = 10980.,  NOMBRE = 20),
                          _F(  JUSQU_A = 11010.,  NOMBRE = 20))
                      )

CALCNL=STAT_NON_LINE(
                            MODELE=MODEL,
                        CHAM_MATER=MATER,
                         COMP_INCR=_F( PARM_THETA = 0.5,
                RELATION = 'LEMAITRE',
                ITER_INTE_MAXI = 1000,
                DEFORMATION = 'PETIT'),
                         INCREMENT=_F(
                LIST_INST = CAT),
                            NEWTON=_F(
                MATRICE = 'TANGENTE',
                REAC_ITER = 1),
                       CONVERGENCE=_F(
                RESI_GLOB_RELA = 1.E-6,
                ITER_GLOB_MAXI = 50),EXCIT=(
                             _F(
                CHARGE = CONDLIM), _F(
                CHARGE = TRAC,
                FONC_MULT = TRAC_FO), _F(
                CHARGE = CISA,
                FONC_MULT = CISA_FO)),
                     RECH_LINEAIRE=_F(
                ITER_LINE_MAXI = 3)
              )

CALCNL=CALC_ELEM( reuse=CALCNL,
                            OPTION=(
                  'SIEF_ELNO',  'VARI_ELNO',),
                          RESULTAT=CALCNL,
              )
CALCNL=CALC_ELEM(reuse=CALCNL,
                          RESULTAT=CALCNL,
                            OPTION='EPSP_ELGA'
                      )
TEST_RESU(RESU=(
          _F(  RESULTAT = CALCNL,
            NOM_CHAM = 'EPSP_ELGA',
            NUME_ORDRE = 30,
            MAILLE = 'MA1',
            NOM_CMP = 'EPXX',
            POINT = 1,
            CRITERE = 'RELATIF',
            PRECISION = 2.E-2,
            VALE = 6.125E-7),

          _F(  RESULTAT = CALCNL,
            NOM_CHAM = 'EPSP_ELGA',
            NUME_ORDRE = 30,
            MAILLE = 'MA1',
            NOM_CMP = 'EPYY',
            POINT = 1,
            CRITERE = 'RELATIF',
            PRECISION = 2.E-2,
            VALE = -4.684E-7),

          _F(  RESULTAT = CALCNL,
            NOM_CHAM = 'EPSP_ELGA',
            NUME_ORDRE = 40,
            MAILLE = 'MA1',
            NOM_CMP = 'EPXX',
            POINT = 1,
            CRITERE = 'RELATIF',
            PRECISION = 2.E-2,
            VALE = 7.056E-4),

          _F(  RESULTAT = CALCNL,
            NOM_CHAM = 'EPSP_ELGA',
            NUME_ORDRE = 40,
            MAILLE = 'MA1',
            NOM_CMP = 'EPYY',
            POINT = 1,
            CRITERE = 'RELATIF',
            PRECISION = 2.E-2,
            VALE = -5.720E-4),

          _F(  RESULTAT = CALCNL,
            NOM_CHAM = 'EPSP_ELGA',
            NUME_ORDRE = 50,
            MAILLE = 'MA1',
            NOM_CMP = 'EPXX',
            POINT = 1,
            CRITERE = 'RELATIF',
            PRECISION = 2.E-2,
            VALE = 7.061E-4),

          _F(  RESULTAT = CALCNL,
            NOM_CHAM = 'EPSP_ELGA',
            NUME_ORDRE = 50,
            MAILLE = 'MA1',
            NOM_CMP = 'EPYY',
            POINT = 1,
            CRITERE = 'RELATIF',
            PRECISION = 2.E-2,
            VALE = -5.724E-4),

          _F(  RESULTAT = CALCNL,
            NOM_CHAM = 'EPSP_ELGA',
            NUME_ORDRE = 60,
            MAILLE = 'MA1',
            NOM_CMP = 'EPXX',
            POINT = 1,
            CRITERE = 'RELATIF',
            PRECISION = 2.E-2,
            VALE = 7.061E-4),

          _F(  RESULTAT = CALCNL,
            NOM_CHAM = 'EPSP_ELGA',
            NUME_ORDRE = 60,
            MAILLE = 'MA1',
            NOM_CMP = 'EPYY',
            POINT = 1,
            CRITERE = 'RELATIF',
            PRECISION = 2.E-2,
            VALE = -5.724E-4),

          _F(  RESULTAT = CALCNL,
            NOM_CHAM = 'EPSP_ELGA',
            NUME_ORDRE = 160,
            MAILLE = 'MA1',
            NOM_CMP = 'EPXX',
            POINT = 1,
            CRITERE = 'RELATIF',
            PRECISION = 2.E-2,
            VALE = -2.443E-5),

          _F(  RESULTAT = CALCNL,
            NOM_CHAM = 'EPSP_ELGA',
            NUME_ORDRE = 160,
            MAILLE = 'MA1',
            NOM_CMP = 'EPYY',
            POINT = 1,
            CRITERE = 'RELATIF',
            PRECISION = 2.E-2,
            VALE = 1.377E-4),

          _F(  RESULTAT = CALCNL,
            NOM_CHAM = 'EPSP_ELGA',
            NUME_ORDRE = 180,
            MAILLE = 'MA1',
            NOM_CMP = 'EPXX',
            POINT = 1,
            CRITERE = 'RELATIF',
            PRECISION = 2.E-2,
            VALE = -7.788E-4),

          _F(  RESULTAT = CALCNL,
            NOM_CHAM = 'EPSP_ELGA',
            NUME_ORDRE = 180,
            MAILLE = 'MA1',
            NOM_CMP = 'EPYY',
            POINT = 1,
            CRITERE = 'RELATIF',
            PRECISION = 2.E-2,
            VALE = 8.423E-4),

          _F(  RESULTAT = CALCNL,
            NOM_CHAM = 'EPSP_ELGA',
            NUME_ORDRE = 240,
            MAILLE = 'MA1',
            NOM_CMP = 'EPXX',
            POINT = 1,
            CRITERE = 'RELATIF',
            PRECISION = 2.E-2,
            VALE = -1.534E-3),

          _F(  RESULTAT = CALCNL,
            NOM_CHAM = 'EPSP_ELGA',
            NUME_ORDRE = 240,
            MAILLE = 'MA1',
            NOM_CMP = 'EPYY',
            POINT = 1,
            CRITERE = 'RELATIF',
            PRECISION = 2.E-2,
            VALE = 1.432E-3))


          )

FIN()
#
